! my mechanism
!
! version info
! version 1.0
!
!built on top of 
!s.m. sarathy, m. mehl, c. k. westbrook, w. j. pitz,c. togbe, p. dagaut, h. wang, m.a. oehlschlaeger, u. niemann, k. seshadri,p.s. veloo, c. ji, f.n. egolfopoulos, t. lu
!comprehensive chemical kinetic modeling of the oxidation of 2-methylalkanes from c7 to c20
! combustion and flame 2011
!
!detailed low t and high t mech for species up to c8
ELEMENTS
C H N O AR HE
END
SPECIES
!***START ARAMCO MECH 1.3***
H                   H2                  O                   O2                  
OH                  OH*                 H2O                 N2                  
HO2                 H2O2                AR                  CO                  
CO2                 CH2O                HCO                 HO2CHO              
HCOH                O2CHO               HOCHO               OCHO                
HOCH2O2H            HOCH2O2             OCH2O2H             HOCH2O              
CH3OH               CH2OH               CH3O                CH3O2H              
CH3O2               CH4                 CH3                 CH2                 
CH2(S)              C                   CH                  CH*                 
C2H6                C2H5                C2H4                C2H3                
C2H2                C2H                 CH3CHO              C2H3OH              
C2H2OH              CH3CO               CH2CHO              O2CH2CHO            
HO2CH2CO            CH2CO               HCCO                HCCOH               
CH3CO3H             CH3CO3              CH3CO2              C2H5OH              
C2H5O               PC2H4OH             SC2H4OH             O2C2H4OH            
C2H5O2H             C2H5O2              C2H4O2H             C2H4O1-2            
C2H3O1-2            CH3COCH3            CH3COCH2            CH3COCH2O2          
C3KET21             C2H3CHO             C2H3CO              C2H5CHO             
C2H5CO              CH3OCH3             CH3OCH2             CH3OCH2O2           
CH2OCH2O2H          CH3OCH2O2H          CH3OCH2O            O2CH2OCH2O2H        
HO2CH2OCHO          OCH2OCHO            HOCH2OCO            CH3OCHO             
CH3OCO              CH2OCHO             HE                  C3H8                
IC3H7               NC3H7               C3H6                C3H5-A              
C3H5-S              C3H5-T              C3H4-P              C3H4-A              
C3H3                C3H5O               C3H6OOH1-2          C3H6OOH1-3          
C3H6OOH2-1          C3H6OOH1-2O2        C3H6OOH1-3O2        C3H6OOH2-1O2        
C3H6OOH2-2          NC3H7O2H            IC3H7O2H            NC3H7O2             
IC3H7O2             NC3H7O              IC3H7O              C3H6O1-2            
C3H6O1-3            C3KET12             C3KET13             C3H51-2,3OOH        
C3H52-1,3OOH        C3H6OH              HOC3H6O2            CH3CHCO             
AC3H5OOH            C2H3OOH             CC3H4               H2CC                
C4H10               C4H8-1              C4H8-2              PC4H9               
SC4H9               C4H71-1             C4H71-2             C4H71-3             
C4H71-4             C4H72-2             C4H6                PC4H9O2H            
SC4H9O2H            PC4H9O2             SC4H9O2             PC4H9O              
SC4H9O              C4H7O               C4H8O1-2            C4H8O1-3            
C4H8O1-4            C4H8O2-3            PC4H8OH             SC4H8OH             
C4H8OH-1O2          C4H8OH-2O2          C4H8OOH1-1          C4H8OOH1-2          
C4H8OOH1-3          C4H8OOH1-4          C4H8OOH2-1          C4H8OOH2-2          
C4H8OOH2-3          C4H8OOH2-4          C4H8OOH1-2O2        C4H8OOH1-3O2        
C4H8OOH1-4O2        C4H8OOH2-1O2        C4H8OOH2-3O2        C4H8OOH2-4O2        
NC4KET12            NC4KET13            NC4KET14            NC4KET21            
NC4KET23            NC4KET24            C2H5COCH3           C2H5COCH2           
CH2CH2COCH3         CH3CHCOCH3          C2H3COCH3           CH3CHOOCOCH3        
CH2CHOOHCOCH3       NC3H7CHO            NC3H7CO             C3H6CHO-1           
C3H6CHO-2           C3H6CHO-3           C2H5CHCO            SC3H5CHO            
SC3H5CO             CH2CH2CHO           IC4H10              IC4H9               
TC4H9               IC4H8               IC4H7               TC4H9O2             
IC4H9O2             TC4H8O2H-I          IC4H8O2H-I          IC4H8O2H-T          
IC4H8O              CC4H8O              IC4H9O              TC4H9O              
IC4H9O2H            TC4H9O2H            IC4H7O              IC4H8OH             
IO2C4H8OH           IC3H7CHO            TC3H6CHO            IC3H7CO             
IC3H6CHO            TC4H8OOH-IO2        IC4H8OOH-IO2        IC4H8OOH-TO2        
IC4KETII            IC4KETIT            IC4H7OH             IC4H6OH             
IC3H5CHO            IC3H5CO             TC3H6OCHO           IC3H6CO             
IC4H7OOH            TC3H6OHCHO          TC3H6OH             IC3H5OH             
TC3H6O2CHO          TC3H6O2HCO          IC3H5O2HCHO         CH2CCH2OH           
TC4H8CHO            O2C4H8CHO           O2HC4H8CO           C3H5OH              
TIC4H7Q2-I          IIC4H7Q2-T          IIC4H7Q2-I          CH2O2H              
C4H4                C4H3-I              C4H3-N              C4H612              
C4H2                C4H5-I              C4H5-N              CH3CHCHCO           
CH2CHCHCHO          C4H6O25             C2H3CHOCH2          C4H5-2              
C4H6-2              C4H6O23             CH3CHCHCHO          C4H4O
H2C4O
!***END ARAMCO MECH 1.3***


NC5H12     C5H11-1    C5H11-2    C5H11-3    C5H10-1
C5H10-2    C5H81-3    C5H91-3    C5H91-4    C5H91-5
C5H92-4    C5H92-5    C5H9O1-3       C5H9O2-4       C5H11O2H-1
C5H11O2H-2     C5H11O2H-3     C5H11O2-1      C5H11O2-2      C5H11O2-3
C5H11O-1       C5H11O-2       C5H11O-3       C5H10OOH1-2    C5H10OOH1-3
C5H10OOH1-4    C5H10OOH1-5    C5H10OOH2-1    C5H10OOH2-3    C5H10OOH2-4
C5H10OOH2-5    C5H10OOH3-2    C5H10OOH3-1    C5H10O1-2      C5H10O1-3
C5H10O1-4      C5H10O1-5      C5H10O2-3      C5H10O2-4      C5H10OOH1-2O2
C5H10OOH1-3O2  C5H10OOH1-4O2  C5H10OOH1-5O2  C5H10OOH2-1O2  C5H10OOH2-3O2
C5H10OOH2-4O2  C5H10OOH2-5O2  C5H10OOH3-1O2  C5H10OOH3-2O2  NC5KET12
NC5KET13       NC5KET14       NC5KET15       NC5KET21       NC5KET23
NC5KET24       NC5KET25       NC5KET31       NC5KET32       C5H10OH-1
C5H10OH-2      O2C5H10OH-1    O2C5H10OH-2
!
!
NC6H14
C6H13-1     C6H13-2     C6H13-3     C6H12-1     C6H12-2
C6H12-3     C6H111-3    C6H111-4    C6H111-5    C6H111-6
C6H112-4    C6H112-5    C6H112-6    C6H113-1    C6H11O1-3
C6H11O2-4       C6H12O1-2       C6H12O1-3       C6H12O1-4       C6H12O1-5
C6H12O2-3       C6H12O2-4       C6H12O2-5       C6H12O3-4       C6H13O2H-1
C6H13O2H-2      C6H13O2H-3      C6H13O2-1       C6H13O2-2       C6H13O2-3
C6H12OOH1-2     C6H12OOH1-3     C6H12OOH1-4     C6H12OOH1-5     C6H12OOH2-1
C6H12OOH2-3     C6H12OOH2-4     C6H12OOH2-5     C6H12OOH2-6     C6H12OOH3-1
C6H12OOH3-2     C6H12OOH3-4     C6H12OOH3-5     C6H12OOH3-6     C6H12OOH1-2O2
C6H12OOH1-3O2   C6H12OOH1-4O2   C6H12OOH1-5O2   C6H12OOH2-1O2   C6H12OOH2-3O2
C6H12OOH2-4O2   C6H12OOH2-5O2   C6H12OOH2-6O2   C6H12OOH3-1O2   C6H12OOH3-2O2
C6H12OOH3-4O2   C6H12OOH3-5O2   C6H12OOH3-6O2   NC6KET12    NC6KET13
NC6KET14    NC6KET15    NC6KET21    NC6KET23    NC6KET24
NC6KET25    NC6KET26    NC6KET31    NC6KET32    NC6KET34
NC6KET35    NC6KET36    C6H13O-1    C6H13O-2    C6H13O-3
C6H12OH-1       C6H12OH-2       C6H12OH-3       O2C6H12OH-1     O2C6H12OH-2
O2C6H12OH-3     NC4H9CHO    NC4H9CO     C4H8CHO-1       C4H8CHO-2
C4H8CHO-3       C4H8CHO-4       AC3H5CHO    AC3H5CO     C2H3CHCHO
NC3H7COCH3      NC3H7COCH2      C3H6COCH3-1     C3H6COCH3-2     C3H6COCH3-3
C2H5COC2H5      C2H5COC2H4P     C2H5COC2H4S     C2H5COC2H3      PC2H4COC2H3
SC2H4COC2H3     NC7H16      C7H15-1     C7H15-2     C7H15-3
C7H15-4     C7H14-1     C7H14-2     C7H14-3     C7H131-3
C7H131-4    C7H131-5    C7H131-6    C7H131-7    C7H132-4
C7H132-5    C7H132-6    C7H132-7    C7H133-1    C7H133-5
C7H133-6    C7H133-7    C7H13O1-3       C7H13O2-4       C7H13O3-5
C7H15O2-1       C7H15O2-2       C7H15O2-3       C7H15O2-4       C7H15O2H-1
C7H15O2H-2      C7H15O2H-3      C7H15O2H-4      C7H15O-1    C7H15O-2
C7H15O-3    C7H15O-4    C7H14OOH1-2     C7H14OOH1-3     C7H14OOH1-4
C7H14OOH1-5     C7H14OOH2-1     C7H14OOH2-3     C7H14OOH2-4     C7H14OOH2-5
C7H14OOH2-6     C7H14OOH3-1     C7H14OOH3-2     C7H14OOH3-4     C7H14OOH3-5
C7H14OOH3-6     C7H14OOH3-7     C7H14OOH4-1     C7H14OOH4-2     C7H14OOH4-3
C7H14OOH1-2O2   C7H14OOH1-3O2   C7H14OOH1-4O2   C7H14OOH1-5O2   C7H14OOH2-1O2
C7H14OOH2-3O2   C7H14OOH2-4O2   C7H14OOH2-5O2   C7H14OOH2-6O2   C7H14OOH3-1O2
C7H14OOH3-2O2   C7H14OOH3-4O2   C7H14OOH3-5O2   C7H14OOH3-6O2   C7H14OOH3-7O2
C7H14OOH4-1O2   C7H14OOH4-2O2   C7H14OOH4-3O2   C7H14O1-2       C7H14O1-3
C7H14O1-4       C7H14O1-5       C7H14O2-3       C7H14O2-4       C7H14O2-5
C7H14O2-6       C7H14O3-4       C7H14O3-5       NC7KET12    NC7KET13
NC7KET14    NC7KET15    NC7KET21    NC7KET23    NC7KET24
NC7KET25    NC7KET26    NC7KET31    NC7KET32    NC7KET34
NC7KET35    NC7KET36    NC7KET37    NC7KET41    NC7KET42
NC7KET43    C7H14OH-1       C7H14OH-2       C7H14OH-3       O2C7H14OH-1
O2C7H14OH-2     O2C7H14OH-3     NC5H11CHO       NC5H11CO    C5H10CHO-1
C5H10CHO-2      C5H10CHO-3      C5H10CHO-4      C5H10CHO-5      C4H7CHO1-4
C4H7CO1-4       C4H6CHO1-43     C4H6CHO1-44     NC4H9COCH3      NC4H9COCH2
C4H8COCH3-1     C4H8COCH3-2     C4H8COCH3-3     C4H8COCH3-4     C4H7OOH1-4
C4H7O1-4    C5H9OOH1-4      C5H9O1-4    C5H9OOH1-5      C5H9O1-5
C6H11OOH1-4     C6H11O1-4       C6H11OOH1-5     C6H11O1-5       C5H91-1
C4H7CHO1-1      C4H7CO1-1       C4H6CHO1-14     C4H6CHO1-13     NC3H7COC2H5
C3H6COC2H5-1    C3H6COC2H5-2    C3H6COC2H5-3    NC3H7COC2H4P    NC3H7COC2H4S
CHCHCHO  
C6H101-3    C6H101-4    C6H101-5    C6H102-4    ETES1   
MVOX        VTHF        EDHF        ETC6        KES1    
C6H111O2H-3     C6H111O2H-4     C6H111O2H-5     C6H111O2H-6     C6H112O2H-4 
C6H112O2H-5     C6H112O2H-6     C6H113O2H-2 
C6H113O2H-1     NC6D1KET34      NC6D1KET35      NC6D1KET36      NC6D1KET43  
NC6D1KET45      NC6D1KET46      NC6D1KET53      NC6D1KET54      NC6D1KET56  
NC6D1KET63      NC6D1KET64      NC6D1KET65      NC6D2KET45      NC6D2KET46 
NC6D2KET54      NC6D2KET56      NC6D2KET64      NC6D2KET65      NC6D3KET12 
NC6D3KET21      C6H112O2-1      C6H111O2-3      C6H111O2-4      C6H111O2-5
C6H111O2-6      C6H112O2-4      C6H112O2-5      C6H112O2-6      C6H113O2-1
C6H113O2-2      C6H101OOH3-4    C6H101OOH3-5    C6H101OOH3-6    C6H101OOH4-3
C6H101OOH4-5    C6H101OOH4-6    C6H101OOH5-3    C6H101OOH5-4    C6H101OOH5-6
C6H101OOH6-3    C6H101OOH6-4    C6H101OOH6-5    C6H101OOH3-4O2  C6H101OOH3-5O2
C6H101OOH3-6O2  C6H101OOH4-3O2  C6H101OOH4-5O2  C6H101OOH4-6O2  C6H101OOH5-3O2
C6H101OOH5-4O2  C6H101OOH5-6O2  C6H101OOH6-3O2  C6H101OOH6-4O2  C6H101OOH6-5O2 
C6H102OOH5-4    C6H103OOH1-2    C6H102OOH4-5    C6H102OOH4-6    C6H102OOH5-6   
C6H102OOH6-4    C6H102OOH6-5    C6H103OOH2-1    C6H102OOH4-5O2   
C6H102OOH4-6O2  C6H102OOH5-4O2  C6H102OOH5-6O2  C6H102OOH6-4O2  C6H102OOH6-5O2  
C6H103OOH2-1O2  C6H103OOH1-2O2  C2H3COC3H7      C5H81-4    
C5H91O2-3       C5H91O2-4       C5H91O2-5       C5H81OOH3-4     C5H81OOH3-5
C5H81OOH4-3     C5H81OOH4-5     C5H81OOH5-4     C5H81OOH5-3     C5H92O2-1    
C5H81OOH3-4O2   C5H81OOH3-5O2   C5H81OOH4-3O2   C5H81OOH4-5O2   C5H81OOH5-3O2   
C5H81OOH5-4O2   NC5D1KET34      NC5D1KET35      NC5D1KET43      NC5D1KET45
NC5D1KET53      NC5D1KET54      CY3C5H8O
!
!
!
IC5KETDB IC6KETEB    
!
!   N-ALKANE AND ALKYL RADICAL SPECIES
!
NC8H18   C8H17-1  C8H17-2  C8H17-3  C8H17-4
!
!
!    OLEFIN SPECIES
!
C8H16-1  C8H16-2  C8H16-3  C8H16-4
!
!!
!
!
!
NC3H7COC2H3 NC4H9COC2H3 C5H11COC2H3 C6H13COC2H3 
!
NC3H7CHCO NC4H9CHCO     
!
!    LARGE ALDEHYDES
!
!
NC8H17CHO
NC7H15CHO NC6H13CHO 
NC8H17CO NC7H15CO NC6H13CO 
C5H10CHO5-2 C4H8CHO4-2
!
!
IC8H17CHO
IC7H15CHO IC6H13CHO IC5H11CHO IC4H9CHO
IC8H17CO IC7H15CO IC6H13CO IC5H11CO IC4H9CO
!
!
! 
!
NC8H17COCH2
NC7H15COCH2 NC6H13COCH2 NC5H11COCH2 
!
!
 IC8H17COCH2
IC7H15COCH2 IC6H13COCH2 IC5H11COCH2 IC4H9COCH2 IC3H7COCH2
!
!
NC8H17COC2H4P 
NC7H15COC2H4P   NC6H13COC2H4P NC5H11COC2H4P NC4H9COC2H4P
!
!
 IC8H17COC2H4P 
IC7H15COC2H4P   IC6H13COC2H4P IC5H11COC2H4P IC4H9COC2H4P IC3H7COC2H4P
!
!
 NC8H17COC2H3 
NC7H15COC2H3   NC6H13COC2H3 NC5H11COC2H3 
!
!
!
 NC8H17COC3H6P   NC7H15COC3H6P
NC6H13COC3H6P  NC5H11COC3H6P   NC4H9COC3H6P  NC3H7COC3H6P
!
!
 IC8H17COC3H6P  IC7H15COC3H6P
IC6H13COC3H6P  IC5H11COC3H6P  IC4H9COC3H6P  IC3H7COC3H6P 
IC5H11COCHCH3  IC4H9COC3H6S IC3H7COC4H8S
!
!
!
NC3H7CHCO NC4H9CHCO NC5H11CHCO NC6H13CHCO NC7H15CHCO  
 
!
IC3H7CHCO
CH3CHCHO
CH3CHOCHO
IC3H7COC2H3
IC3H6COC2H3
TC3H6COC2H3
!
!
!    ALKENYL RADICALS
!
C8H15  
!
!
!       C5 AND C6 2-METHYLALKYL RADICALS, ALKENES, AND ALKENYL RADICALS
!       FORMED BY DECOMPOSITION OF LARGER 2-METHYLALKANES
!   THE NAMES OF THESE SPECIES DO NOT FOLLOW THE SAME CONVENTION AS THE
!   C7 AND GREATER 2-METHYLALKANES SINCE THESE ARE PART OF THE BASE MECHANISM
AC6H13
BC6H13
CC6H13
AC6H12
BC6H12
EC6H13  !C6H13-2E 
DC6H13  !C6H13-2D 
DC6H12  !C6H12-4-2  
CC6H12  !C6H12-3-2 
IC6H11  !C6H11-1-2
AC5H11  !C5H11-2A
BC5H11  !C5H11-2B
CC5H11  !C5H11-2C
DC5H11  !C5H11-2D
AC5H10  !C5H11-1-2
BC5H10  !C5H10-2-2
CC5H10  !C5H10-3-2
IC5H9   !C5H9-1-1
LC6H13  !C6H13-3A OR C6H13-3E
MC6H13  !C6H13-3B
NC6H13  !C6H13-3C
OC6H13  !C6H13-3D
LC6H12  !C6H12-1-3
MC6H12  !C6H12-2-3
NC6H12  !C6H12-Z-3
C6H11-3 !C6H11-1-3
!
!
!
!
!
!       2-METHYLHEXANE 
!       2-METHYLHEXANE AND ITS CORRESPONDING ALKYL RADICALS;
!       RADICAL SITE DENOTED BY LETTER
C7H16-2 
C7H15-2A    C7H15-2B    C7H15-2C       C7H15-2D    C7H15-2E    C7H15-2F
!
!       ALL 2-METHYLHEXENES AND ITS CORRESPONDING ALKENYL RADICALS
!       RADICAL SITE DENOTED BY LETTER 
C7H14-1-2       C7H14-2-2       C7H14-3-2       C7H14-4-2       C7H14-5-2
!
C7H13-1-2  !THIS SPECIES IS A LUMP OF THE VARIOUS C7H13-1-2 RADICALS BELOW
!
!
!
!
! 2-METHYLHEPTANE 
! 2-METHYLHEPTANE AND ITS CORRESPONDING ALKYL RADICALS;
! RADICAL SITE DENOTED BY LETTER
C8H18-2 
C8H17-2A    C8H17-2B       C8H17-2C    C8H17-2D    C8H17-2E    C8H17-2F
C8H17-2G
!
! ALL 2-METHYLHEPTENES AND ITS CORRESPONDING ALKENYL RADICALS
! RADICAL SITE DENOTED BY LETTER 
C8H16-1-2       C8H16-2-2       C8H16-3-2       C8H16-4-2       C8H16-5-2       C8H16-6-2
!
C8H15-1-2  !THIS SPECIES IS A LUMP OF THE VARIOUS C8H15-1-2 RADICALS BELOW
!
!
!
!	C7 AND GREATER 2-METHYLALKANES SINCE THESE ARE PART OF THE BASE MECHANISM (HETANJIN NEED TO BE UNIFIED)
!
! 2-METHYLHEPTANE 
! 2-METHYLHEPTANE AND ITS CORRESPONDING ALKYL RADICALS;
! RADICAL SITE DENOTED BY LETTER
!C8H18_2 
!C8H17_2_A    C8H17_2_B       C8H17_2_C    C8H17_2_D    C8H17_2_E    C8H17_2_F
!C8H17_2_G
!
!           ********            SYMMETRIC DIMETHYL ALKANES       **********
!
!                               2,(N-1)-DIMETHYL ALKANES
!
!      2,4-DIMETHYL PENTANE
!
!
!
!
C7H16-24 
C7H15-24A    C7H15-24B    C7H15-24C      
!
!       ALL 2,4-DIMETHYLPENTENES AND ITS CORRESPONDING ALKENYL RADICALS
!       RADICAL SITE DENOTED BY LETTER 
C7H14-1-24       C7H14-2-24       
!
C7H13-1-24  !THIS SPECIES IS A LUMP OF THE VARIOUS ALKENYL RADICALS
!
!
! 2,5-DIMETHYLHEXANE 
! 2,5-DIMETHYLHEXANE AND ITS CORRESPONDING ALKYL RADICALS;
! RADICAL SITE DENOTED BY LETTER
!
C8H18-25 
C8H17-25A    C8H17-25B       C8H17-25C    
!
! ALL 2,5-DIMETHYLHEXENES AND ITS CORRESPONDING ALKENYL RADICALS
! RADICAL SITE DENOTED BY LETTER 
C8H16-1-25       C8H16-2-25       C8H16-3-25    
!
C8H15-1-25  
!
!       2,5-METHYLHEXANE RO. SPECIES; RADICAL SITE ON THE OXYGEN
C8H17O-1-25              C8H17O-2-25              C8H17O-3-25
!
!       2,5-METHYLHEXANE ROO. SPECIES; RADICAL SITE ON THE OXYGEN 
C8H17OO-1-25         C8H17OO-2-25             C8H17OO-3-25
!
!       2,5-METHYLHEXANE ROOH SPECIES; NO RADICAL SITES 
C8H17OOH-1-25        C8H17OOH-2-25        C8H17OOH-3-25
!
!
!   2,5-METHYLHEXANE .QOOH SPECIES;  C8H16-1DENOTED AS C8
!       A HYPHEN IS NOT USED TO INDICATE OOH POSITION
!       RADICAL SITE DENOTED BY LETTER; 
!       INCLUDES TRANSITION STATE RINGS OF 5, 6, 7, AND 8 ATOMS
C8OOH1-25A           C8OOH1-25B           C8OOH1-25C
C8OOH1-25D           C8OOH1-25E           
!
C8OOH2-25A           C8OOH2-25C           C8OOH2-25D
C8OOH2-25E           C8OOH2-25F           
!
C8OOH3-25A           C8OOH3-25B           C8OOH3-25D
C8OOH3-25E           C8OOH3-25F          
!
!       2,5-METHYLHEXANE .OOQOOH SPECIES;    C8H16-1DENOTED AS C8
!       A HYPHEN IS NOT USED TO INDICATE OOH POSITION
!       A HYPHEN IS NOT USED TO INDICATE OO POSITION
!       RADICAL SITE ON THE OXYGEN IN O2
C8OOH1-OO1-25        C8OOH1-OO2-25        C8OOH1-OO3-25
C8OOH1-OO4-25        C8OOH1-OO5-25        
!
C8OOH2-OO1-25        C8OOH2-OO3-25        C8OOH2-OO4-25
C8OOH2-OO5-25        C8OOH2-OO6-25
!
C8OOH3-OO1-25        C8OOH3-OO2-25        C8OOH3-OO4-25
C8OOH3-OO5-25        C8OOH3-OO6-25       
!
!
!       2,5-METHYLHEXANE CYCLIC ETHER SPECIES; NO RADICAL SITES
C8H16O1-1-25             C8H16O1-2-25             C8H16O1-3-25     
C8H16O1-4-25             C8H16O1-5-25             
!
C8H16O2-3-25             C8H16O2-4-25             C8H16O2-5-25
!
C8H16O3-4-25            
!
!
!       2,5-METHYLHEXANE KETO-HYDROPEROXIDE (KET) SPECIES; C8H16-1DENOTED AS C8
!       THERE ARE NO RADICAL SITES
!       (1ST NUMBER IS KETENE GROUP; 2ND NUMBER IS OOH GROUP)
!
C8KET1-1-25              C8KET1-2-25              C8KET1-3-25
C8KET1-4-25              C8KET1-5-25
!
C8KET3-1-25              C8KET3-2-25              C8KET3-4-25
C8KET3-5-25              C8KET3-6-25              
!
! 			2,6-DIMETHYLHEPTANE
!
! 2,6-DIMETHYLHEPTANE AND ITS CORRESPONDING ALKYL RADICALS
!
C9H20_26
C9H19_26_A C9H19_26_B C9H19_26_C C9H19_26_D
!
! ALL 2,6-DIMETHYLHEPTENES AND ITS CORRESPONDING ALKENYL RADICALS (LUMP)
!
C9H18_1_26 C9H18_2_26 C9H18_3_26
!
C9H17_1_1_26
!
! 2,6-DIMETHYLHEPTANE RO. SPECIES; RADICAL SITE ON THE OXYGEN 
C9H19O_1_26 C9H19O_2_26 C9H19O_3_26 C9H19O_4_26
!
! 2,6-DIMETHYLHEPTANE ROO. SPECIES; RADICAL SITE ON THE OXYGEN
C9H19OO_1_26 C9H19OO_2_26 C9H19OO_3_26 C9H19OO_4_26
!
! 2,6-DIMETHYLHEPTANE ROOH SPECIES; NO RADICAL SITES
C9H19OOH_1_26 C9H19OOH_2_26 C9H19OOH_3_26 C9H19OOH_4_26
!
! 2,6-DIMETHYLHEPTANE .QOOH SPECIES; RADICAL SITE ON THE CARBON
! C9H18 DENOTED AS C9; 1ST NUMBER IS OOH GROUP; 2ND NUMBER IS METHYL GROUP; 3RD NUMBER IS RADICAL SITE
! NOTE THERE ARE THREE KINDS OF PRIMARY CARBON ATOMS FOR C9OOH_1_26, WHILE TWO FOR C9OOH_2_26 AND C9OOH_3_26 AND ONLY ONE FOR C9OOH_4_26
! BECAUSE DIFFERENT OOH LOCATION BRINGS DIFFERENT SYMMETRY 
! INCLUDES TRANSITION STATE RINGS OF 5, 6, 7, 8, AND 9 ATOMS
C9OOH_1_26_B C9OOH_1_26_C C9OOH_1_26_D C9OOH_1_26_E C9OOH_1_26_F C9OOH_1_26_G
!
C9OOH_2_26_A C9OOH_2_26_C C9OOH_2_26_D C9OOH_2_26_E C9OOH_2_26_F C9OOH_2_26_G
!
C9OOH_3_26_A C9OOH_3_26_B C9OOH_3_26_D C9OOH_3_26_E C9OOH_3_26_F C9OOH_3_26_G
!
C9OOH_4_26_A C9OOH_4_26_B C9OOH_4_26_C
!
! 2,6-DIMETHYLHEPTANE .OOQOOH SPECIES; RADICAL SITE ON THE OXYGEN
! C9H18 DENOTED AS C9; 1ST NUMBER IS OOH GROUP; 2ND NUMBER IS OO GROUP; 3RD NUMBER IS METHYL GROUP
C9OOH_1_OO_1_26 C9OOH_1_OO_2_26 C9OOH_1_OO_3_26 C9OOH_1_OO_4_26 C9OOH_1_OO_5_26 C9OOH_1_OO_6_26
!
C9OOH_2_OO_1_26 C9OOH_2_OO_3_26 C9OOH_2_OO_4_26 C9OOH_2_OO_5_26 C9OOH_2_OO_6_26 C9OOH_2_OO_7_26
!
C9OOH_3_OO_1_26 C9OOH_3_OO_2_26 C9OOH_3_OO_4_26 C9OOH_3_OO_5_26 C9OOH_3_OO_6_26 C9OOH_3_OO_7_26
!
C9OOH_4_OO_1_26 C9OOH_4_OO_2_26 C9OOH_4_OO_3_26
!
! 2,6-DIMETHYLHEPTANE CYCLIC EHTER SPECIES; NO RADICAL SITE
!
C9H18O_1_1_26 C9H18O_1_2_26 C9H18O_1_3_26 C9H18O_1_4_26 C9H18O_1_5_26 C9H18O_1_6_26
!
C9H18O_2_3_26 C9H18O_2_4_26 C9H18O_2_5_26 C9H18O_2_6_26
!
C9H18O_3_4_26 C9H18O_3_5_26
!
! 2,6-DIMETHYLHEPTANE KETO-HYDROPEROXIDE (KET) SPECIES; C9H18 DENOTED AS C9
!
C9KET_1_1_26 C9KET_1_2_26 C9KET_1_3_26 C9KET_1_4_26 C9KET_1_5_26 C9KET_1_6_26
!
C9KET_3_1_26 C9KET_3_2_26 C9KET_3_4_26 C9KET_3_5_26 C9KET_3_6_26 C9KET_3_7_26  
!
C9KET_4_1_26 C9KET_4_2_26 C9KET_4_3_26
!
! FARNESANE (2,6,10-TRIMETHYLDODECANE)
!
! 2,6,10-TRIMETHYLDODECANE AND ITS CORRESPONDING ALKYL RADICALS
!
C15H32_2610
C15H31_2610_A C15H31_2610_B C15H31_2610_C C15H31_2610_D C15H31_2610_E
C15H31_2610_F C15H31_2610_G C15H31_2610_H C15H31_2610_I C15H31_2610_J
C15H31_2610_K C15H31_2610_L C15H31_2610_M C15H31_2610_N
!
! ALL 2,6,10-TRIMETHYLDODECENES AND ITS CORRESPONDING ALKENYL RADICALS (LUMP)
!
C15H30_1_2610 C15H30_2_2610 C15H30_3_2610 C15H30_4_2610 C15H30_5_2610
C15H30_6_2610 C15H30_6_2610-2 C15H30_7_2610 C15H30_8_2610 C15H30_9_2610
C15H30_10_2610 C15H30_10_2610-2 C15H30_11_2610
!
C15H29_1_1_2610
!
! 2,6,10-TRIMETHYLDODECANE RO. SPECIES; RADICAL SITE ON THE OXYGEN
!
C15H31O_1_2610	C15H31O_2_2610	C15H31O_3_2610	C15H31O_4_2610	C15H31O_5_2610
C15H31O_6_2610	C15H31O_7_2610	C15H31O_8_2610	C15H31O_9_2610	C15H31O_10_2610
C15H31O_11_2610	C15H31O_12_2610	C15H31O_13_2610	C15H31O_14_2610
!
! 2,6,10-TRIMETHYLDODECANE ROO. SPECIES; RADICAL SITE ON THE OXYGEN
!
C15H31OO_1_2610	C15H31OO_2_2610	C15H31OO_3_2610	C15H31OO_4_2610	C15H31OO_5_2610
C15H31OO_6_2610	C15H31OO_7_2610	C15H31OO_8_2610	C15H31OO_9_2610	C15H31OO_10_2610
C15H31OO_11_2610 C15H31OO_12_2610 C15H31OO_13_2610 C15H31OO_14_2610
!
! 2,6,10-TRIMETHYLDODECANE ROOH SPECIES; NO RADICAL SITES
!
C15H31OOH_1 C15H31OOH_2 C15H31OOH_3 C15H31OOH_4	C15H31OOH_5
C15H31OOH_6 C15H31OOH_7 C15H31OOH_8 C15H31OOH_9	C15H31OOH_10
C15H31OOH_11 C15H31OOH_12 C15H31OOH_13 C15H31OOH_14
!
! 2,6,10-TRIMETHYLDODECANE .QOOH SPECIES; RADICAL SITE ON THE CARBON
! C15H30 DENOTED AS C15; 1ST NUMBER IS OOH GROUP; 2ND NUMBER IS METHYL GROUP; 3RD NUMBER IS RADICAL SITE
! INCLUDES TRANSITION STATE RINGS OF 5, 6, 7, 8, AND 9 ATOMS
!
C15OOH_1_2610_A	C15OOH_1_2610_B	C15OOH_1_2610_C	C15OOH_1_2610_D	C15OOH_1_2610_E	C15OOH_1_2610_F
!
C15OOH_2_2610_A	C15OOH_2_2610_C	C15OOH_2_2610_D	C15OOH_2_2610_E	C15OOH_2_2610_F	C15OOH_2_2610_G	
C15OOH_2_2610_H
!
C15OOH_3_2610_A	C15OOH_3_2610_B	C15OOH_3_2610_D	C15OOH_3_2610_E	C15OOH_3_2610_F	C15OOH_3_2610_G	
C15OOH_3_2610_H	C15OOH_3_2610_I
!
C15OOH_4_2610_A	C15OOH_4_2610_B	C15OOH_4_2610_C	C15OOH_4_2610_E	C15OOH_4_2610_F	C15OOH_4_2610_G	
C15OOH_4_2610_H	C15OOH_4_2610_I	C15OOH_4_2610_J
!
C15OOH_5_2610_A	C15OOH_5_2610_B	C15OOH_5_2610_C	C15OOH_5_2610_D	C15OOH_5_2610_F	C15OOH_5_2610_G	
C15OOH_5_2610_H	C15OOH_5_2610_I	C15OOH_5_2610_J	C15OOH_5_2610_K
!
C15OOH_6_2610_A	C15OOH_6_2610_B	C15OOH_6_2610_C	C15OOH_6_2610_D	C15OOH_6_2610_E	C15OOH_6_2610_G
C15OOH_6_2610_H	C15OOH_6_2610_I	C15OOH_6_2610_J	C15OOH_6_2610_K	C15OOH_6_2610_L	C15OOH_6_2610_M
!
C15OOH_7_2610_B	C15OOH_7_2610_C	C15OOH_7_2610_D	C15OOH_7_2610_E	C15OOH_7_2610_F	C15OOH_7_2610_H
C15OOH_7_2610_I	C15OOH_7_2610_J	C15OOH_7_2610_K
!
C15OOH_8_2610_B	C15OOH_8_2610_C	C15OOH_8_2610_D	C15OOH_8_2610_E	C15OOH_8_2610_F	C15OOH_8_2610_G	
C15OOH_8_2610_I	C15OOH_8_2610_J	C15OOH_8_2610_K	C15OOH_8_2610_L	C15OOH_8_2610_M	C15OOH_8_2610_N
!
C15OOH_9_2610_C	C15OOH_9_2610_D	C15OOH_9_2610_E	C15OOH_9_2610_F	C15OOH_9_2610_G	C15OOH_9_2610_H	
C15OOH_9_2610_J	C15OOH_9_2610_K	C15OOH_9_2610_L	C15OOH_9_2610_M	C15OOH_9_2610_N
!
C15OOH_10_2610_D C15OOH_10_2610_E C15OOH_10_2610_F C15OOH_10_2610_G C15OOH_10_2610_H C15OOH_10_2610_I	
C15OOH_10_2610_K C15OOH_10_2610_L C15OOH_10_2610_M C15OOH_10_2610_N
!
C15OOH_11_2610_E C15OOH_11_2610_F C15OOH_11_2610_G C15OOH_11_2610_H C15OOH_11_2610_I C15OOH_11_2610_J	
C15OOH_11_2610_L C15OOH_11_2610_M C15OOH_11_2610_N
!
C15OOH_12_2610_F C15OOH_12_2610_H C15OOH_12_2610_I C15OOH_12_2610_J C15OOH_12_2610_K C15OOH_12_2610_M C15OOH_12_2610_N
!
C15OOH_13_2610_F C15OOH_13_2610_H C15OOH_13_2610_I C15OOH_13_2610_J C15OOH_13_2610_K C15OOH_13_2610_L
C15OOH_13_2610_N
!
C15OOH_14_2610_H C15OOH_14_2610_I C15OOH_14_2610_J C15OOH_14_2610_K C15OOH_14_2610_L C15OOH_14_2610_M
!
! 2,6,10-TRIMETHYLDODECANE .OOQOOH SPECIES; RADICAL SITE ON THE OXYGEN
! C15H30OOH DENOTED AS C15; 1ST NUMBER IS OOH GROUP; 2ND NUMBER IS OO GROUP; 3RD NUMBER IS METHYL GROUP
!
C15_1_OO1_2610 C15_1_OO2_2610 C15_1_OO3_2610 C15_1_OO4_2610 C15_1_OO5_2610 C15_1_OO6_2610
!
C15_2_OO1_2610 C15_2_OO3_2610 C15_2_OO4_2610 C15_2_OO5_2610	C15_2_OO6_2610 C15_2_OO7_2610 
C15_2_OO8_2610
!
C15_3_OO1_2610 C15_3_OO2_2610 C15_3_OO4_2610 C15_3_OO5_2610 C15_3_OO6_2610 C15_3_OO7_2610 
C15_3_OO8_2610 C15_3_OO9_2610
!
C15_4_OO1_2610 C15_4_OO2_2610 C15_4_OO3_2610 C15_4_OO5_2610 C15_4_OO6_2610 C15_4_OO7_2610
C15_4_OO8_2610 C15_4_OO9_2610 C15_4_OO10_2610
!
C15_5_OO1_2610 C15_5_OO2_2610 C15_5_OO3_2610 C15_5_OO4_2610 C15_5_OO6_2610 C15_5_OO7_2610
C15_5_OO8_2610 C15_5_OO9_2610 C15_5_OO10_2610 C15_5_OO11_2610
!
C15_6_OO1_2610 C15_6_OO2_2610 C15_6_OO3_2610 C15_6_OO4_2610 C15_6_OO5_2610 C15_6_OO7_2610
C15_6_OO8_2610 C15_6_OO9_2610 C15_6_OO10_2610 C15_6_OO11_2610 C15_6_OO12_2610 C15_6_OO13_2610
!
C15_7_OO2_2610 C15_7_OO3_2610 C15_7_OO4_2610 C15_7_OO5_2610	C15_7_OO6_2610 C15_7_OO8_2610
C15_7_OO9_2610 C15_7_OO10_2610 C15_7_OO11_2610
!
C15_8_OO2_2610	C15_8_OO3_2610	C15_8_OO4_2610	C15_8_OO5_2610	C15_8_OO6_2610	C15_8_OO7_2610
C15_8_OO9_2610	C15_8_OO10_2610	C15_8_OO11_2610	C15_8_OO12_2610	C15_8_OO13_2610	C15_8_OO14_2610
!
C15_9_OO3_2610	C15_9_OO4_2610	C15_9_OO5_2610	C15_9_OO6_2610	C15_9_OO7_2610	C15_9_OO8_2610
C15_9_OO10_2610	C15_9_OO11_2610	C15_9_OO12_2610	C15_9_OO13_2610	C15_9_OO14_2610
!
C15_10_OO4_2610	C15_10_OO5_2610	C15_10_OO6_2610	C15_10_OO7_2610	C15_10_OO8_2610	C15_10_OO9_2610	
C15_10_OO11_2610 C15_10_OO12_2610 C15_10_OO13_2610 C15_10_OO14_2610
!
C15_11_OO5_2610	C15_11_OO6_2610	C15_11_OO7_2610	C15_11_OO8_2610	C15_11_OO9_2610	C15_11_OO10_2610
C15_11_OO12_2610 C15_11_OO13_2610 C15_11_OO14_2610
!
C15_12_OO6_2610	C15_12_OO8_2610	C15_12_OO9_2610	C15_12_OO10_2610 C15_12_OO11_2610
C15_12_OO13_2610 C15_12_OO14_2610
!
C15_13_OO6_2610	C15_13_OO8_2610	C15_13_OO9_2610	C15_13_OO10_2610 C15_13_OO11_2610 C15_13_OO12_2610
C15_13_OO14_2610
!
C15_14_OO8_2610	C15_14_OO9_2610	C15_14_OO10_2610 C15_14_OO11_2610 C15_14_OO12_2610 C15_14_OO13_2610
!
! 2,6,10-TRIMETHYLDODECANE CYCLIC EHTER SPECIES; NO RADICAL SITE
!
C15H30O_11	C15H30O_12	C15H30O_13	C15H30O_14	C15H30O_15	C15H30O_16
!
C15H30O_23	C15H30O_24	C15H30O_25	C15H30O_26	C15H30O_27	C15H30O_28
!
C15H30O_34	C15H30O_35	C15H30O_36	C15H30O_37	C15H30O_38	C15H30O_39
!
C15H30O_45	C15H30O_46	C15H30O_47	C15H30O_48	C15H30O_49	C15H30O_410
!
C15H30O_56	C15H30O_57	C15H30O_58	C15H30O_59	C15H30O_510 C15H30O_511
!
C15H30O_67	C15H30O_68	C15H30O_69	C15H30O_610 C15H30O_611 C15H30O_612 
C15H30O_613
!
C15H30O_78	C15H30O_79	C15H30O_710 C15H30O_711
!
C15H30O_89	C15H30O_810 C15H30O_811 C15H30O_812 C15H30O_813	C15H30O_814
!
C15H30O_910 C15H30O_911 C15H30O_912 C15H30O_913	C15H30O_914
!
C15H30O_1011	C15H30O_1012	C15H30O_1013	C15H30O_1014
!
C15H30O_1112	C15H30O_1113	C15H30O_1114
!
C15H30O_1213	C15H30O_1214
!
C15H30O_1314
!
! 2,6,10-TRIMETHYLDODECANE KETO-HYDROPEROXIDE (KET) SPECIES; C15H30 DENOTED AS C15
!
C15KET_1_1	C15KET_1_2	C15KET_1_3	C15KET_1_4	C15KET_1_5	C15KET_1_6
!
C15KET_3_1	C15KET_3_2	C15KET_3_4	C15KET_3_5	C15KET_3_6	C15KET_3_7
C15KET_3_8	C15KET_3_9
!
C15KET_4_1	C15KET_4_2	C15KET_4_3	C15KET_4_5	C15KET_4_6	C15KET_4_7
C15KET_4_8	C15KET_4_9	C15KET_4_10
!
C15KET_5_1	C15KET_5_2	C15KET_5_3	C15KET_5_4	C15KET_5_6	C15KET_5_7
C15KET_5_8	C15KET_5_9	C15KET_5_10 C15KET_5_11
!
C15KET_7_2	C15KET_7_3	C15KET_7_4	C15KET_7_5	C15KET_7_6	C15KET_7_8
C15KET_7_9	C15KET_7_10 C15KET_7_11
!
C15KET_8_2	C15KET_8_3	C15KET_8_4	C15KET_8_5	C15KET_8_6	C15KET_8_7
C15KET_8_9	C15KET_8_10 C15KET_8_11 C15KET_8_12 C15KET_8_13	C15KET_8_14
!
C15KET_9_3	C15KET_9_4	C15KET_9_5	C15KET_9_6	C15KET_9_7	C15KET_9_8
C15KET_9_10 C15KET_9_11 C15KET_9_12 C15KET_9_13	C15KET_9_14
!
C15KET_10_4 C15KET_10_5 C15KET_10_6 C15KET_10_7	C15KET_10_8 C15KET_10_9	
C15KET_10_11 C15KET_10_12 C15KET_10_13 C15KET_10_14
!
C15KET_12_6 C15KET_12_8 C15KET_12_9	C15KET_12_10 C15KET_12_11
C15KET_12_13 C15KET_12_14
!
C15KET_13_6 C15KET_13_8 C15KET_13_9 C15KET_13_10 C15KET_13_11 C15KET_13_12 C15KET_13_14
!
C15KET_14_8 C15KET_14_9 C15KET_14_10 C15KET_14_11 C15KET_14_12	C15KET_14_13
!
!	NEW SPECIES
!
!C7H15-2 C7H15-3 C7H15-2F
C7H15-3A C7H15-3F   
!C8H17-2A C8H17-2F C8H17-1 C8H17-2 
C8H17_4_A C8H17-3G C8H17-3A 
!C9H19_26_A
C9H19_3_H  C9H19_3_A C9H19-2H
C10H21_26_A C10H21_26_I C10H21_4_A C10H21_3_J C10H21_3_A
C11H23_37_A C11H23_26_J
C12H25_37_L
C13H27_26_K
C14H29_37_M C14H29_210_F C14H29_26_K C14H29_2610_A 
!
!C7H14-5-2 C7H14-1 C7H14-2 C7H14-1-2 
C7H14-5-3 C7H14-1-3 
!C8H16-5-2 C8H16-6-2 C8H16-1-2 C8H16-1 C8H16-2
C8H16-6-3 C8H16-1-3 C8H16_1_4  
!C9H18_1_26
C9H18_1_6  C9H18_2_6 C9H18_1_3 C9H18_1_2 C9H18_1_5 C9H18_1 C9H18_2 C9H18_1_4 C9H18_1_7
C10H20_1_26 C10H20_1_37 C10H20_1_4 C10H20_1_3 C10H20_1_7 C10H20_1_6 C10H20_2_6 C10H20_1_8
C11H22_1_37 C11H22_1_48 C11H22_1_4 C11H22_1_8
C12H24_1_48 C12H24_2_6 C12H24_1_6 C12H24_1_59 C12H24_2_10 C12H24_1_10
C13H26_2_610 C13H26_1_610 
C14H28_1_610 C14H28_5_210 C14H28_6_210 C14H28_3_711 C14H28_1_2610 C14H28_2_711 C14H28_2_610
!
! C7H131-6 C7H13-1-2 C7H131-7
C7H13-1-3
!C8H15-1-2 C8H15 
C8H15_1_1_4 C8H15-1-3
C9H17_1_1_26
C9H17_1_1_3  C9H17_1_1_2 C9H17_1_1_4 C9H17_1_1
C10H19_1_1_26 C10H19_1_1_4 C10H19_1_1_3 C10H19_1_1_2
C11H21_1_1_37 C11H21_1_1_26 C11H21_1_1_4 C11H21_1_1_3
C12H23_1_1_37 C12H23_1_1_6 C12H23_1_1_26 C12H23_1_1_2
C13H25_1_1_26
C14H27_1_1_2610 C14H27_1_1_37 C14H27_1_1_210 C14H27_1_1_26
!
BC4H9CHO BC4H8CHO IC4H8CHO BC4H7CHO  
BC4H9CO BC4H8CO BC4H7CO
IC3H6COCH3   
!
C5H11CHO_3 C5H10CHO_3 CC5H10CHO  
C5H11CO_3 C5H10CO_3 IC4H9CHCO
BC4H9COCH2 BC4H8COCH3
!
C6H13CHO_3 
C6H13CO_3 C6H12CO_3
C5H11COCH2_3 C4H9COC2H4P_3 C4H9COC2H3_3 C5H10COCH3_B
! C7H131-6
C7H14CHO_2
C6H13COCH3_2 IC5H11COC2H3 
C6H12COCH3_2_A C6H12COCH3_2_B C6H12COCH3_2_C C6H12COCH3_2_D C6H12COCH3_2_E C6H13COCH2_2 
!
C8H17CHO_26 C8H16CHO_3 C8H16CHO_2 C8H15CHO_2 
C8H16CO_26 C8H15CO_2 C8H17CO_26 
C6H13COC2H3_3 C6H13COC2H4S_3 C5H11COC3H6S_3 C4H9COC4H8S_3 C4H9COC4H8P_2 C7H15COCH3_3 C5H11COC3H6P_2
C7H14COCH3_3_A C7H14COCH3_3_B C7H14COCH3_3_C C7H14COCH3_3_D C7H14COCH3_3_E C7H14COCH3_3_F C7H14COCH3_3_G C7H15COCH2_3 
!
C9H19CHO_37 C9H19CHO_26 C9H18CHO_3 C9H18CHO_2 
C9H19CO_37 C9H19CO_26 C9H18CO_37 C9H18CO_26
C6H13COC3H6P_3 C8H17COCH2_26 C5H11COC4H8P_3 C5H11COC4H8P_2 C8H16COCH3_4_A
!